* Training 1

xrc1 2 1 0 rc params: r=1k c=1n
xrc2 3 2 0 rc params: r=10k c=10n
.include rc.lib
vin 1 0 pulse (0 5 0 1 u 1 u 10 u 20 u); voltage source between node (1) and node (0)
.tran 0.1u 40u
.probe
.plot tran v(1) v(2) v(3)
.end






