Version 4
SHEET 1 1916 1008
WIRE -32 -464 -128 -464
WIRE 64 -464 -32 -464
WIRE 192 -464 64 -464
WIRE -128 -432 -128 -464
WIRE -32 -432 -32 -464
WIRE 64 -432 64 -464
WIRE 192 -432 192 -464
WIRE -384 -352 -432 -352
WIRE -256 -352 -304 -352
WIRE -128 -352 -128 -368
WIRE -128 -352 -256 -352
WIRE 192 -320 192 -352
WIRE -432 -256 -432 -352
WIRE -432 -256 -512 -256
WIRE -384 -256 -432 -256
WIRE -240 -256 -304 -256
WIRE -32 -256 -32 -368
WIRE -32 -256 -240 -256
WIRE -512 -240 -512 -256
WIRE 192 -192 192 -240
WIRE -432 -176 -432 -256
WIRE -384 -176 -432 -176
WIRE -240 -176 -304 -176
WIRE 64 -176 64 -368
WIRE 64 -176 -240 -176
WIRE -128 -160 -128 -352
WIRE -32 -160 -32 -256
WIRE 64 -160 64 -176
WIRE -32 -144 -32 -160
WIRE -128 -48 -128 -96
WIRE -32 -48 -32 -96
WIRE -32 -48 -128 -48
WIRE 64 -48 64 -96
WIRE 64 -48 -32 -48
WIRE 192 -48 192 -112
WIRE 192 -48 64 -48
WIRE -592 256 -592 224
WIRE -464 256 -464 224
WIRE -304 256 -304 224
WIRE -144 256 -144 224
WIRE 32 256 32 224
WIRE 176 256 176 224
WIRE -592 368 -592 336
WIRE -464 368 -464 336
WIRE -464 368 -592 368
WIRE -304 368 -304 336
WIRE -304 368 -464 368
WIRE -144 368 -144 336
WIRE -144 368 -304 368
WIRE 32 368 32 336
WIRE 32 368 -144 368
WIRE 176 368 176 336
WIRE 176 368 32 368
WIRE -144 416 -144 368
FLAG -592 224 Vg1
FLAG -464 224 Vg2
FLAG -304 224 Vg3
FLAG -144 224 Vg4
FLAG -144 416 0
FLAG -512 -240 0
FLAG 64 -48 Vdn
FLAG 64 -464 Vdp
FLAG -240 -176 Vc
FLAG -240 -256 vb
FLAG -256 -352 va
FLAG 32 224 Vg5
FLAG 176 224 Vg6
FLAG -80 -432 Vg1
FLAG 16 -432 Vg3
FLAG 112 -432 Vg5
FLAG -80 -160 Vg4
FLAG 112 -160 Vg2
FLAG 16 -160 Vg6
SYMBOL Misc\\SCR -112 -368 R180
WINDOW 3 77 -86 VRight 0
SYMATTR Value 2N1595
SYMATTR InstName U1
SYMBOL voltage -592 240 R0
WINDOW 123 0 0 Left 0
WINDOW 39 0 0 Left 0
WINDOW 3 -704 106 Left 0
SYMATTR Value PULSE(0V 10V   {{ALPHA}/{360*{FREQ}}}  1NS 1NS 100US {1/{FREQ}})
SYMATTR InstName Vgate1
SYMBOL voltage -464 240 R0
WINDOW 123 0 0 Left 0
WINDOW 39 0 0 Left 0
WINDOW 3 -661 151 Left 0
SYMATTR Value PULSE(0V 10V   {{{ALPHA}+60}/{360*{FREQ}}}  1NS 1NS 100US {1/{FREQ}})
SYMATTR InstName Vgate2
SYMBOL voltage -304 240 R0
WINDOW 123 0 0 Left 0
WINDOW 39 0 0 Left 0
WINDOW 3 -673 195 Left 0
SYMATTR Value PULSE(0V 10V   {{{ALPHA}+120}/{360*{FREQ}}}  1NS 1NS 100US {1/{FREQ}})
SYMATTR InstName Vgate3
SYMBOL voltage -144 240 R0
WINDOW 123 0 0 Left 0
WINDOW 39 0 0 Left 0
WINDOW 3 -691 238 Left 0
SYMATTR Value PULSE(0V 10V   {{{ALPHA}+180}/{360*{FREQ}}}  1NS 1NS 100US {1/{FREQ}})
SYMATTR InstName Vgate4
SYMBOL voltage -288 -352 R90
WINDOW 0 -32 56 VBottom 0
WINDOW 3 -29 266 VTop 0
WINDOW 123 0 0 Left 0
WINDOW 39 0 0 Left 0
SYMATTR InstName V1
SYMATTR Value SINE(0 100 60 0 0 0 0)
SYMBOL voltage -288 -256 R90
WINDOW 0 -32 56 VBottom 0
WINDOW 3 -32 233 VTop 0
WINDOW 123 0 0 Left 0
WINDOW 39 0 0 Left 0
SYMATTR InstName V2
SYMATTR Value SINE(0 100 60 0 0 240 0)
SYMBOL voltage -288 -176 R90
WINDOW 0 -12 7 VBottom 0
WINDOW 3 -31 251 VTop 0
WINDOW 123 0 0 Left 0
WINDOW 39 0 0 Left 0
SYMATTR InstName V3
SYMATTR Value SINE(0 100 60 0 0 +120 0)
SYMBOL res 208 -224 R180
WINDOW 0 36 76 Left 0
WINDOW 3 36 40 Left 0
SYMATTR InstName R2
SYMATTR Value 0.5
SYMBOL voltage 192 -448 R0
WINDOW 0 -32 56 VBottom 0
WINDOW 3 -4 56 VBottom 0
WINDOW 123 0 0 Left 0
WINDOW 39 0 0 Left 0
SYMATTR InstName V4
SYMATTR Value 0
SYMBOL Misc\\SCR -16 -368 R180
WINDOW 3 77 -86 VRight 0
SYMATTR Value 2N1595
SYMATTR InstName U3
SYMBOL Misc\\SCR 80 -368 R180
WINDOW 3 77 -86 VRight 0
SYMATTR Value 2N1595
SYMATTR InstName U5
SYMBOL Misc\\SCR -112 -96 R180
WINDOW 3 77 -86 VRight 0
SYMATTR Value 2N1595
SYMATTR InstName U4
SYMBOL Misc\\SCR -16 -96 R180
WINDOW 3 77 -86 VRight 0
SYMATTR Value 2N1595
SYMATTR InstName U6
SYMBOL Misc\\SCR 80 -96 R180
WINDOW 3 77 -86 VRight 0
SYMATTR Value 2N1595
SYMATTR InstName U2
SYMBOL voltage 32 240 R0
WINDOW 123 0 0 Left 0
WINDOW 39 0 0 Left 0
WINDOW 3 -631 267 Left 0
SYMATTR Value PULSE(0V 10V   {{{ALPHA}+240}/{360*{FREQ}}}  1NS 1NS 100US {1/{FREQ}})
SYMATTR InstName Vgate5
SYMBOL voltage 176 240 R0
WINDOW 123 0 0 Left 0
WINDOW 39 0 0 Left 0
WINDOW 3 -607 303 Left 0
SYMATTR Value PULSE(0V 10V   {{{ALPHA}+300}/{360*{FREQ}}}  1NS 1NS 100US {1/{FREQ}})
SYMATTR InstName Vgate6
SYMBOL ind 176 -208 R0
SYMATTR InstName L1
SYMATTR Value 6.5m
TEXT -688 -656 Left 0 ;Simulação:  Conversor AC==>DC\nRetificador monofásico controlado de onda completa\nOne phase full wave controlled rectifier
TEXT 608 -600 Left 0 !.PARAM ALPHA=10 FREQ=60\n; .STEP PARAM ALPHA 0 180 5\n.TRAN 1US 30MS\n; Transient analysis from 0 to 5 ms\n \n;.OPTIONS ABSTOL = 100.U RELTOL = 0.01 VNTOL = 0.01\n.OPTIONS ABSTOL = 1.00N RELTOL = 0.01 VNTOL = 0.01 ; ITL5 = 20000
TEXT 608 -256 Left 0 !* Subcircuit for AC thyristor model\n* Modelo para tristor SCR retirado do manual do PSPICE\n \n.SUBCKT 2N15951 1 3 2\n* model anode +control cathode\n* name          voltage\n \nS1 1 5 6 2 SMOD ; Switch\nRG 3 4 50 \nVX 4 2 DC 0V\nVY 5 7 DC 0V\nDT 7 2 DMOD ; Switch diode\nRT 6 2 1 \nCT 6 2 10UF \nF1 2 6 POLY(2) VX VY 0 50 11\n \n.MODEL SMOD VSWITCH (RON=0.0105 ROFF=10E+5 VON=0.5V VOFF=0V) ;Switch model\n.MODEL DMOD D(IS=2.2E-15 BV=1200V TT=0 CJO=0) ; Diode model parameters\n.ENDS 2N1595 ; Ends subcircuit definition
TEXT -616 96 Left 0 ;Circuito de controle dos disparos dos tristores
TEXT 616 -312 Left 0 ;Modelo dos tristores
TEXT 632 -624 Left 0 ;Comandos da simulação
TEXT -736 160 Left 0 ;Disparos    +0  +60  +120+180 +240 +300
TEXT 624 320 Left 0 !.subckt 2N1595          anode gate cathode\n* "Typical" parameters\nX1 anode gate cathode Scr params:\n+ Vdrm=50v   Vrrm=50v     Ih=5ma       Vtm=1.1v     Itm=1\n+ dVdt=1e9   Igt=2ma      Vgt=.7v      Ton=0.8u     Toff=10u\n+ Idrm=10u\n* 90-5-18    Motorola     DL137, Rev 2, 3/89\n.ends\n*$\n* THIS FILE CONTAINS A PRE-RAD MODEL AT 75 C.\n* PARAMETER MODEL EXTRACTED FROM MEASURED DATA UTILIZING AN SCR\n* MODEL DEVELOPED BY AVANT, LEE, AND CHEN. FURTHER INFORMATION ON THE MODEL\n* CAN BE FOUND IN THE IEEE POWER ELECTRONICS CONFERENCE PAPER (JULY 1981) THAT\n* THEY PRESENTED. TITLE OF PAPER IS : "A PRACTICAL SCR MODEL FOR COMPUTER AIDED\n* ANALYSIS OF AC RESONANT CHARGING CIRCUITS".
