* gnetlist -v -O sort_mode -g spice-sdb -o main.net main.sch
*********************************************************
* Spice file generated by gnetlist                      *
* spice-sdb version 4.28.2007 by SDB --                 *
* provides advanced spice netlisting capability.        *
* Documentation at http://www.brorson.com/gEDA/SPICE/   *
*********************************************************
*==============  Begin SPICE netlist of main design ============
C1 n1 n2 3.3nF  
R1 0 n2 1K  
V1 n1 0 SIN(0 10 1kHz)
*vvvvvvvv  Included SPICE model from command.txt vvvvvvvv
*spice commands

.control
*.set color0=rgb:f/f/f
*.set color1=rgb:0/0/0
*.set filetype=ascii
.endc

.tran 0.01ms 5ms
.save all  
.print tran all 
*.endc
*^^^^^^^^  End of included SPICE model from command.txt ^^^^^^^^
*
.end
